#
# *******************
# Calendar Parameters
# *******************
 &CAL_NML
 TheCalendar='noLeapYear',
 startDate_1=19920101,
# startDate_2=120000,
 startDate_2=000000,
 calendarDumps = .TRUE.,
 &
