#
# *******************
# Calendar Parameters
# *******************
 &CAL_NML
 TheCalendar='gregorian',
# startDate_1=19790115,
 startDate_1=19960101,
 startDate_2=000000,
# calendarDumps=.true.,
 /
