 &PTRACERS_PARM01
 PTRACERS_numInUse= 31,
#
 PTRACERS_advScheme(:)= 31*33,
 PTRACERS_diffKh(:)= 31*0.E3,
 PTRACERS_diffKr(:)= 31*1.E-5,
#
 PTRACERS_EvPrRn(:)= 31*0.E3,
#
 PTRACERS_names( 1)= 'DIC',
 PTRACERS_names( 2)= 'NO3',
 PTRACERS_names( 3)= 'NO2',
 PTRACERS_names( 4)= 'NH4',
 PTRACERS_names( 5)= 'PO4',
 PTRACERS_names( 6)= 'FeT',
 PTRACERS_names( 7)= 'SiO2',
 PTRACERS_names( 8)= 'DOC',
 PTRACERS_names( 9)= 'DON',
 PTRACERS_names(10)= 'DOP',
 PTRACERS_names(11)= 'DOFe',
 PTRACERS_names(12)= 'POC',
 PTRACERS_names(13)= 'PON',
 PTRACERS_names(14)= 'POP',
 PTRACERS_names(15)= 'POFe',
 PTRACERS_names(16)= 'POSi',
 PTRACERS_names(17)= 'PIC',
 PTRACERS_names(18)= 'ALK',
 PTRACERS_names(19)= 'O2',
 PTRACERS_names(20)= 'c01',
 PTRACERS_names(21)= 'c02',
 PTRACERS_names(22)= 'c03',
 PTRACERS_names(23)= 'c04',
 PTRACERS_names(24)= 'c05',
 PTRACERS_names(25)= 'c06',
 PTRACERS_names(26)= 'c07',
 PTRACERS_names(27)= 'Chl01',
 PTRACERS_names(28)= 'Chl02',
 PTRACERS_names(29)= 'Chl03',
 PTRACERS_names(30)= 'Chl04',
 PTRACERS_names(31)= 'Chl05',
#
# uM is shorthand for mmol m^-3
#
 PTRACERS_units( 1)= 'uM C'
 PTRACERS_units( 2)= 'uM N'
 PTRACERS_units( 3)= 'uM N'
 PTRACERS_units( 4)= 'uM N'
 PTRACERS_units( 5)= 'uM P'
 PTRACERS_units( 6)= 'uM Fe'
 PTRACERS_units( 7)= 'uM Si'
 PTRACERS_units( 8)= 'uM C'
 PTRACERS_units( 9)= 'uM N'
 PTRACERS_units(10)= 'uM P'
 PTRACERS_units(11)= 'uM Fe'
 PTRACERS_units(12)= 'uM C'
 PTRACERS_units(13)= 'uM N'
 PTRACERS_units(14)= 'uM P'
 PTRACERS_units(15)= 'uM Fe'
 PTRACERS_units(16)= 'uM Si'
 PTRACERS_units(17)= 'uM C'
 PTRACERS_units(18)= 'meq/m^3'
 PTRACERS_units(19)= 'uM O'
 PTRACERS_units(20)= 'uM C'
 PTRACERS_units(21)= 'uM C'
 PTRACERS_units(22)= 'uM C'
 PTRACERS_units(23)= 'uM C'
 PTRACERS_units(24)= 'uM C'
 PTRACERS_units(25)= 'uM C'
 PTRACERS_units(26)= 'uM C'
 PTRACERS_units(27)= 'mg/m^3'
 PTRACERS_units(28)= 'mg/m^3'
 PTRACERS_units(29)= 'mg/m^3'
 PTRACERS_units(30)= 'mg/m^3'
 PTRACERS_units(31)= 'mg/m^3'
#
 PTRACERS_initialFile( 1)= '/scratch/wangy0m/ECCO_Darwin/Data/run_template/init_new/DIC_2000x2000x65.16-Jan-1992',
 PTRACERS_initialFile( 2)= '/scratch/wangy0m/ECCO_Darwin/Data/run_template/init_new/NO3_2000x2000x65.16-Jan-1992',
 PTRACERS_initialFile( 3)= '/scratch/wangy0m/ECCO_Darwin/Data/run_template/init_new/NO2_2000x2000x65.16-Jan-1992',
 PTRACERS_initialFile( 4)= '/scratch/wangy0m/ECCO_Darwin/Data/run_template/init_new/NH4_2000x2000x65.16-Jan-1992',
 PTRACERS_initialFile( 5)= '/scratch/wangy0m/ECCO_Darwin/Data/run_template/init_new/PO4_2000x2000x65.16-Jan-1992',
 PTRACERS_initialFile( 6)= '/scratch/wangy0m/ECCO_Darwin/Data/run_template/init_new/FeT_2000x2000x65.16-Jan-1992',
 PTRACERS_initialFile( 7)= '/scratch/wangy0m/ECCO_Darwin/Data/run_template/init_new/SiO2_2000x2000x65.16-Jan-1992',
 PTRACERS_initialFile( 8)= '/scratch/wangy0m/ECCO_Darwin/Data/run_template/init_new/DOC_2000x2000x65.16-Jan-1992',
 PTRACERS_initialFile( 9)= '/scratch/wangy0m/ECCO_Darwin/Data/run_template/init_new/DON_2000x2000x65.16-Jan-1992',
 PTRACERS_initialFile(10)= '/scratch/wangy0m/ECCO_Darwin/Data/run_template/init_new/DOP_2000x2000x65.16-Jan-1992',
 PTRACERS_initialFile(11)= '/scratch/wangy0m/ECCO_Darwin/Data/run_template/init_new/DOFe_2000x2000x65.16-Jan-1992',
 PTRACERS_initialFile(12)= '/scratch/wangy0m/ECCO_Darwin/Data/run_template/init_new/POC_2000x2000x65.16-Jan-1992',
 PTRACERS_initialFile(13)= '/scratch/wangy0m/ECCO_Darwin/Data/run_template/init_new/PON_2000x2000x65.16-Jan-1992',
 PTRACERS_initialFile(14)= '/scratch/wangy0m/ECCO_Darwin/Data/run_template/init_new/POP_2000x2000x65.16-Jan-1992',
 PTRACERS_initialFile(15)= '/scratch/wangy0m/ECCO_Darwin/Data/run_template/init_new/POFe_2000x2000x65.16-Jan-1992',
 PTRACERS_initialFile(16)= '/scratch/wangy0m/ECCO_Darwin/Data/run_template/init_new/POSi_2000x2000x65.16-Jan-1992',
 PTRACERS_initialFile(17)= '/scratch/wangy0m/ECCO_Darwin/Data/run_template/init_new/PIC_2000x2000x65.16-Jan-1992',
 PTRACERS_initialFile(18)= '/scratch/wangy0m/ECCO_Darwin/Data/run_template/init_new/ALK_2000x2000x65.16-Jan-1992',
 PTRACERS_initialFile(19)= '/scratch/wangy0m/ECCO_Darwin/Data/run_template/init_new/O2_2000x2000x65.16-Jan-1992',
 PTRACERS_initialFile(20)= '/scratch/wangy0m/ECCO_Darwin/Data/run_template/init_new/c1_2000x2000x65.16-Jan-1992',
 PTRACERS_initialFile(21)= '/scratch/wangy0m/ECCO_Darwin/Data/run_template/init_new/c2_2000x2000x65.16-Jan-1992',
 PTRACERS_initialFile(22)= '/scratch/wangy0m/ECCO_Darwin/Data/run_template/init_new/c3_2000x2000x65.16-Jan-1992',
 PTRACERS_initialFile(23)= '/scratch/wangy0m/ECCO_Darwin/Data/run_template/init_new/c4_2000x2000x65.16-Jan-1992',
 PTRACERS_initialFile(24)= '/scratch/wangy0m/ECCO_Darwin/Data/run_template/init_new/c5_2000x2000x65.16-Jan-1992',
 PTRACERS_initialFile(25)= '/scratch/wangy0m/ECCO_Darwin/Data/run_template/init_new/c6_2000x2000x65.16-Jan-1992',
 PTRACERS_initialFile(26)= '/scratch/wangy0m/ECCO_Darwin/Data/run_template/init_new/c7_2000x2000x65.16-Jan-1992',
 PTRACERS_initialFile(27)= '/scratch/wangy0m/ECCO_Darwin/Data/run_template/init_new/Chl1_2000x2000x65.16-Jan-1992',
 PTRACERS_initialFile(28)= '/scratch/wangy0m/ECCO_Darwin/Data/run_template/init_new/Chl2_2000x2000x65.16-Jan-1992',
 PTRACERS_initialFile(29)= '/scratch/wangy0m/ECCO_Darwin/Data/run_template/init_new/Chl3_2000x2000x65.16-Jan-1992',
 PTRACERS_initialFile(30)= '/scratch/wangy0m/ECCO_Darwin/Data/run_template/init_new/Chl4_2000x2000x65.16-Jan-1992',
 PTRACERS_initialFile(31)= '/scratch/wangy0m/ECCO_Darwin/Data/run_template/init_new/Chl5_2000x2000x65.16-Jan-1992',
 &
