# Packages
 &PACKAGES
 useCAL         = .TRUE.,
 useEXF         = .TRUE.,
 useDiagnostics = .TRUE.,
 useOBCS        = .TRUE.,
 usePTRACERS    = .TRUE.,
 &
