
 &MNC_01
 mnc_use_outdir=.TRUE.,
 mnc_outdir_str='mnc_',
 monitor_mnc=.FALSE.,
 pickup_read_mnc=.FALSE.,
 pickup_write_mnc=.FALSE.,
 mnc_read_theta=.FALSE.,
 mnc_read_salt =.FALSE.,
 /
