# Packages
 &PACKAGES
 useCAL         = .TRUE.,
 useDiagnostics = .TRUE.,
 useEXF         = .TRUE.,
 useGCHEM       = .TRUE.,
 useGGL90       = .TRUE.,
 useGMRedi      = .TRUE.,
 useOBCS        = .TRUE.,
 usePTRACERS    = .TRUE.,
 useSALT_PlUME  = .TRUE.,
 useSeaice      = .TRUE.,
 /
