# Packages
 &PACKAGES
 useCAL   = .TRUE.,
 useEXF   = .TRUE.,
 useGMRedi= .TRUE.,
 useGGL90=.TRUE.,
 useDiagnostics=.TRUE.,
 usePtracers=.TRUE.,
 useGCHEM = .TRUE.,
 useRADTRANS = .TRUE.,
 useOASIM = .TRUE.,
 /
