# Packages
 &PACKAGES
 useCAL   = .TRUE.,
 useEXF   = .TRUE.,
 useGMRedi= .TRUE.,
 useSeaice= .TRUE.,
 useGGL90=.TRUE.,
 useSALT_PlUME=.TRUE.,
# useDiagnostics=.TRUE.,
#usePtracers=.TRUE.,
 /
