# Packages
 &PACKAGES
  useKPP     = .TRUE.,
  useEXF     = .TRUE.,
  useCAL     = .TRUE.,
  useSEAICE  = .TRUE.,
  usePTRACERS= .TRUE.,
  useGCHEM   = .TRUE.,
#  useDiagnostics = .TRUE.,
#  useECCO   = .TRUE.,
#  useGrdchk = .FALSE.,
#  useMNC    = .TRUE,
 &
