# Packages
 &PACKAGES
 useSEAICE      = .TRUE.,
 useKPP         = .TRUE.,
 useEXF         = .TRUE.,
 useDiagnostics = .TRUE.,
 usePTRACERS    = .TRUE..,
 useGCHEM       = .TRUE.,
 useMNC         = .FALSE.,
 &
