# Example "data.mnc" file
# Lines beginning "#" are comments
 &MNC_01
# mnc_echo_gvtypes=.FALSE.,
# mnc_use_indir=.FALSE.,
 mnc_use_outdir=.TRUE.,
 mnc_outdir_str='out_1',
 mnc_outdir_num=.FALSE.,
# mnc_filefreq=31536000.,
# mnc_outdir_date=.FALSE.,
 monitor_mnc=.FALSE.,
 snapshot_mnc=.TRUE.,
 timeave_mnc=.TRUE.,
pickup_write_mnc=.FALSE.,
pickup_read_mnc=.FALSE.,
 &
# Note: Some systems use & as the
# namelist terminator. Other systems
# use a / character.



















