# Packages
 &PACKAGES
 useEXF   = .TRUE.,
 useCAL   = .TRUE.,
 useGMRedi= .TRUE.,
 useGGL90 = .TRUE.,
# useCTRL  = .TRUE.,
# useSMOOTH= .TRUE.,
 useDiagnostics=.TRUE.,
 useOBCS  = .TRUE.,
 usePTRACERS   = .TRUE.,
 useGCHEM      = .TRUE.,
 /
