# Packages
 &PACKAGES
 useCAL = .TRUE.,
 useMNC = .TRUE.,
 &
