# Packages
 &PACKAGES
 useEXF   = .TRUE.,
 useCAL   = .TRUE.,
# useGMRedi= .TRUE.,
 useSeaice= .TRUE.,
# useGGL90 = .TRUE.,
# useCTRL  = .TRUE.,
# useSMOOTH= .TRUE.,
# useSALT_PlUME=.TRUE.,
 useDiagnostics=.TRUE.,
 usePTRACERS   = .TRUE.,
 useGCHEM      = .TRUE.,
 useKPP        = .TRUE.,
 useOBCS        = .TRUE.,
 useSHELFICE    = .TRUE.,
 /
