# *********************
# External Forcing Data
# *********************
#
 &EXF_NML_01
  useAtmWind        = .TRUE.,
# TO COMBINE WITH ALLOW_ZENITH_ANGLE:
  exf_albedo        = 0.1,
  useExfZenIncoming = .TRUE., 
  select_ZenAlbedo  = 1,
#
  ocean_emissivity  = 0.97,
  ice_emissivity    = 0.95,
  snow_emissivity   = 0.95,
#
  exf_iprec         = 32,
  exf_yftype        = 'RL',
  useExfYearlyFields= .TRUE.,
  useExfCheckRange  = .FALSE.,
 /

 &EXF_NML_02
  atempfile         = 'era_xx_it42_v2/LR17_10x22_EXFatemp_6hourly',
  aqhfile           = 'era_xx_it42_v2/LR17_10x22_EXFaqh_6hourly',
  precipfile        = 'era_xx_it42_v2/LR17_10x22_EXFpreci_6hourly',
  runofffile        = 'era_xx_it42_v2/LR17_10x22_Fekete_runoff',
  uwindfile         = 'era_xx_it42_v2/LR17_10x22_EXFuwind_6hourly',
  vwindfile         = 'era_xx_it42_v2/LR17_10x22_EXFvwind_6hourly',
  swdownfile        = 'era_xx_it42_v2/LR17_10x22_EXFswdn_6hourly',
  lwdownfile        = 'era_xx_it42_v2/LR17_10x22_EXFlwdn_6hourly',
#
  atempstartdate1   = 19920101,
  atempstartdate2   = 000000,
  atempperiod       = 21600.0,
#
  aqhstartdate1     = 19920101,
  aqhstartdate2     = 000000,
  aqhperiod         = 21600.0,
#
  precipstartdate1  = 19920101,
  precipstartdate2  = 030000,
  precipperiod      = 21600.0,
#
  runoffperiod      = -12,
#
  uwindstartdate1   = 19920101,
  uwindstartdate2   = 000000,
  uwindperiod       = 21600.0,
#
  vwindstartdate1   = 19920101,
  vwindstartdate2   = 000000,
  vwindperiod       = 21600.0,
#
  swdownstartdate1  = 19920101,
  swdownstartdate2  = 030000,
  swdownperiod      = 21600.0,
#
  lwdownstartdate1  = 19920101,
  lwdownstartdate2  = 030000,
  lwdownperiod      = 21600.0,
 /

 &EXF_NML_03
 /

 &EXF_NML_04
#
 atemp_lon0        = -4.166667,
 atemp_lon_inc     =  0.333333,
 atemp_lat0        = 43.3551315,
 atemp_lat_inc     = 0.225631713867188, 0.224872589111328, 0.224105834960938,
  0.223346710205078, 0.222579956054688, 0.221820831298828, 0.221057891845703,
  0.220294952392578, 0.219535827636719, 0.218772888183594, 0.218009948730469,
  0.217250823974609, 0.216491699218750, 0.215728759765625, 0.214973449707031,
  0.214214324951172, 0.213451385498047, 0.212699890136719, 0.211940765380859,
  0.211181640625000, 0.210430145263672, 0.209678649902344,
 atemp_nlon        = 10,
 atemp_nlat        = 22,
#
 aqh_lon0        = -4.166667,
 aqh_lon_inc     =  0.333333,
 aqh_lat0        = 43.3551315,
 aqh_lat_inc     = 0.225631713867188, 0.224872589111328, 0.224105834960938,
  0.223346710205078, 0.222579956054688, 0.221820831298828, 0.221057891845703,
  0.220294952392578, 0.219535827636719, 0.218772888183594, 0.218009948730469,
  0.217250823974609, 0.216491699218750, 0.215728759765625, 0.214973449707031,
  0.214214324951172, 0.213451385498047, 0.212699890136719, 0.211940765380859,
  0.211181640625000, 0.210430145263672, 0.209678649902344,
 aqh_nlon        = 10,
 aqh_nlat        = 22,
#
 precip_lon0        = -4.166667,
 precip_lon_inc     =  0.333333,
 precip_lat0        = 43.3551315,
 precip_lat_inc     = 0.225631713867188, 0.224872589111328, 0.224105834960938,
  0.223346710205078, 0.222579956054688, 0.221820831298828, 0.221057891845703,
  0.220294952392578, 0.219535827636719, 0.218772888183594, 0.218009948730469,
  0.217250823974609, 0.216491699218750, 0.215728759765625, 0.214973449707031,
  0.214214324951172, 0.213451385498047, 0.212699890136719, 0.211940765380859,
  0.211181640625000, 0.210430145263672, 0.209678649902344,
 precip_nlon        = 10,
 precip_nlat        = 22,
#
 runoff_lon0        = -4.166667,
 runoff_lon_inc     =  0.333333,
 runoff_lat0        = 43.3551315,
 runoff_lat_inc     = 0.225631713867188, 0.224872589111328, 0.224105834960938,
  0.223346710205078, 0.222579956054688, 0.221820831298828, 0.221057891845703,
  0.220294952392578, 0.219535827636719, 0.218772888183594, 0.218009948730469,
  0.217250823974609, 0.216491699218750, 0.215728759765625, 0.214973449707031,
  0.214214324951172, 0.213451385498047, 0.212699890136719, 0.211940765380859,
  0.211181640625000, 0.210430145263672, 0.209678649902344,
 runoff_nlon        = 10,
 runoff_nlat        = 22,
#
 uwind_lon0        = -4.166667,
 uwind_lon_inc     =  0.333333,
 uwind_lat0        = 43.3551315,
 uwind_lat_inc     = 0.225631713867188, 0.224872589111328, 0.224105834960938,
  0.223346710205078, 0.222579956054688, 0.221820831298828, 0.221057891845703,
  0.220294952392578, 0.219535827636719, 0.218772888183594, 0.218009948730469,
  0.217250823974609, 0.216491699218750, 0.215728759765625, 0.214973449707031,
  0.214214324951172, 0.213451385498047, 0.212699890136719, 0.211940765380859,
  0.211181640625000, 0.210430145263672, 0.209678649902344,
 uwind_nlon        = 10,
 uwind_nlat        = 22,
#
 vwind_lon0        = -4.166667,
 vwind_lon_inc     =  0.333333,
 vwind_lat0        = 43.3551315,
 vwind_lat_inc     = 0.225631713867188, 0.224872589111328, 0.224105834960938,
  0.223346710205078, 0.222579956054688, 0.221820831298828, 0.221057891845703,
  0.220294952392578, 0.219535827636719, 0.218772888183594, 0.218009948730469,
  0.217250823974609, 0.216491699218750, 0.215728759765625, 0.214973449707031,
  0.214214324951172, 0.213451385498047, 0.212699890136719, 0.211940765380859,
  0.211181640625000, 0.210430145263672, 0.209678649902344,
 vwind_nlon        = 10,
 vwind_nlat        = 22,
#
 swdown_lon0        = -4.166667,
 swdown_lon_inc     =  0.333333,
 swdown_lat0        = 43.3551315,
 swdown_lat_inc     = 0.225631713867188, 0.224872589111328, 0.224105834960938,
  0.223346710205078, 0.222579956054688, 0.221820831298828, 0.221057891845703,
  0.220294952392578, 0.219535827636719, 0.218772888183594, 0.218009948730469,
  0.217250823974609, 0.216491699218750, 0.215728759765625, 0.214973449707031,
  0.214214324951172, 0.213451385498047, 0.212699890136719, 0.211940765380859,
  0.211181640625000, 0.210430145263672, 0.209678649902344,
 swdown_nlon        = 10,
 swdown_nlat        = 22,
#
 lwdown_lon0        = -4.166667,
 lwdown_lon_inc     =  0.333333,
 lwdown_lat0        = 43.3551315,
 lwdown_lat_inc     = 0.225631713867188, 0.224872589111328, 0.224105834960938,
  0.223346710205078, 0.222579956054688, 0.221820831298828, 0.221057891845703,
  0.220294952392578, 0.219535827636719, 0.218772888183594, 0.218009948730469,
  0.217250823974609, 0.216491699218750, 0.215728759765625, 0.214973449707031,
  0.214214324951172, 0.213451385498047, 0.212699890136719, 0.211940765380859,
  0.211181640625000, 0.210430145263672, 0.209678649902344,
 lwdown_nlon        = 10,
 lwdown_nlat        = 22,
#
 /

 &EXF_NML_OBCS
/
