# RBCS package parameters:
 &RBCS_PARM01
   rbcsForcingOffset=-2629800.0,
   rbcsForcingPeriod=2629800.0,
 &
# RBCS for pTracers (read this namelist only when ptracers pkg is compiled)
 &RBCS_PARM02
 &
# RBCS for A|H
 &RBCS_PARM03
   useRBCarea=.TRUE.,
   useRBCheff=.TRUE.,
   tauRelaxA=432000.,
   tauRelaxH=432000.,
   relaxMaskAFile='Mac_rbcs_mask.bin',
   relaxMaskHFile='Mac_rbcs_mask.bin',
   relaxAFile='Mac_SIarea.bin',
   relaxHFile='Mac_SIheff.bin',
 &
