#
# ***************
# Open boundaries
# ***************
 &KPP_PARM01
 KPPmixingMaps   = .FALSE.,
# KPPwriteState   = .TRUE.,
# kpp_dumpFreq    = 2592000.
# kpp_tavefreq    = 2592000.
 Ricr            = 0.3559
 Riinfty         = 0.6998
 &

