#
# *******************
# Calendar Parameters
# *******************
 &CAL_NML
 TheCalendar='model',
 startDate_1=19850101,
 startDate_2=000000,
 calendarDumps = .TRUE.
 &
