# Packages
 &PACKAGES
 useCAL   = .TRUE.,
 useEXF   = .TRUE.,
 useGMRedi= .TRUE.,
 useSeaice= .TRUE.,
 useShelfIce=.TRUE.,
 useGGL90=.TRUE.,
 useSALT_PlUME=.TRUE.,
 useDiagnostics=.TRUE.,
 useCTRL=.FALSE.,
 useSMOOTH=.FALSE.,
 usePtracers=.TRUE.,
 useGCHEM = .TRUE.,
 useRADTRANS   = .TRUE.,
 /
