# Packages
 &PACKAGES
 useCAL         = .TRUE.,
 useSEAICE      = .TRUE.,
 useKPP         = .TRUE.,
 useEXF         = .TRUE.,
 useDiagnostics = .TRUE.,
 usePTRACERS    = .TRUE.,
 useGCHEM       = .TRUE.,
 &
