# =====================================================================
# | Parameters for Gaspar et al. (1990)'s TKE vertical mixing scheme  |
# =====================================================================
 &GGL90_PARM01
 GGL90TKEFile = 'pickup_ggl90.0000026352.data',
 /