# Packages
 &PACKAGES
 useCAL         = .TRUE.,
 useEXF         = .TRUE.,
 useOBCS        = .TRUE.,
 useDiagnostics = .TRUE.,
 useGGL90 = .TRUE.,
 /
