# ***************
# Open boundaries
# ***************
 &OBCS_PARM01
 OB_Jnorth =   80*100,
 OB_Jsouth =   80*1,
 OB_Iwest  =   100*1,
#
 useOBCSprescribe=.TRUE.,
#
 OBNsFile='obcs/CCS_kelp_80x100x48_SALT_North',
 OBNtFile='obcs/CCS_kelp_80x100x48_THETA_North',
 OBNuFile='obcs/CCS_kelp_80x100x48_U_North',
 OBNvFile='obcs/CCS_kelp_80x100x48_V_North',
 OBNptrFile(1)='obcs/CCS_kelp_80x100x48_DIC_North',
 OBNptrFile(2)='obcs/CCS_kelp_80x100x48_NO3_North',
 OBNptrFile(3)='obcs/CCS_kelp_80x100x48_NO2_North',
 OBNptrFile(4)='obcs/CCS_kelp_80x100x48_NH4_North',
 OBNptrFile(5)='obcs/CCS_kelp_80x100x48_PO4_North',
 OBNptrFile(6)='obcs/CCS_kelp_80x100x48_FeT_North',
 OBNptrFile(7)='obcs/CCS_kelp_80x100x48_SiO2_North',
 OBNptrFile(8)='obcs/CCS_kelp_80x100x48_DOC_North',
 OBNptrFile(9)='obcs/CCS_kelp_80x100x48_DON_North',
 OBNptrFile(10)='obcs/CCS_kelp_80x100x48_DOP_North',
 OBNptrFile(11)='obcs/CCS_kelp_80x100x48_DOFe_North',
 OBNptrFile(12)='obcs/CCS_kelp_80x100x48_POC_North',
 OBNptrFile(13)='obcs/CCS_kelp_80x100x48_PON_North',
 OBNptrFile(14)='obcs/CCS_kelp_80x100x48_POP_North',
 OBNptrFile(15)='obcs/CCS_kelp_80x100x48_POFe_North',
 OBNptrFile(16)='obcs/CCS_kelp_80x100x48_POSi_North',
 OBNptrFile(17)='obcs/CCS_kelp_80x100x48_PIC_North',
 OBNptrFile(18)='obcs/CCS_kelp_80x100x48_ALK_North',
 OBNptrFile(19)='obcs/CCS_kelp_80x100x48_O2_North',
 OBNptrFile(20)='obcs/CCS_kelp_80x100x48_c1_North',
 OBNptrFile(21)='obcs/CCS_kelp_80x100x48_c2_North',
 OBNptrFile(22)='obcs/CCS_kelp_80x100x48_c3_North',
 OBNptrFile(23)='obcs/CCS_kelp_80x100x48_c4_North',
 OBNptrFile(24)='obcs/CCS_kelp_80x100x48_c5_North',
 OBNptrFile(25)='obcs/CCS_kelp_80x100x48_c6_North',
 OBNptrFile(26)='obcs/CCS_kelp_80x100x48_c7_North',
 OBNptrFile(27)='obcs/CCS_kelp_80x100x48_Chl1_North',
 OBNptrFile(28)='obcs/CCS_kelp_80x100x48_Chl2_North',
 OBNptrFile(29)='obcs/CCS_kelp_80x100x48_Chl3_North',
 OBNptrFile(30)='obcs/CCS_kelp_80x100x48_Chl4_North',
 OBNptrFile(31)='obcs/CCS_kelp_80x100x48_Chl5_North',
 OBNptrFile(32)='obcs2/CCS_kelp_80x100x48_Bmag_North.bin',
 OBNptrFile(33)='obcs2/CCS_kelp_80x100x48_Cmag_North.bin',
 OBNptrFile(34)='obcs2/CCS_kelp_80x100x48_Qmag_North.bin',
#
 OBSsFile='obcs/CCS_kelp_80x100x48_SALT_South',
 OBStFile='obcs/CCS_kelp_80x100x48_THETA_South',
 OBSuFile='obcs/CCS_kelp_80x100x48_U_South',
 OBSvFile='obcs/CCS_kelp_80x100x48_V_South',
 OBSptrFile(1)='obcs/CCS_kelp_80x100x48_DIC_South',
 OBSptrFile(2)='obcs/CCS_kelp_80x100x48_NO3_South',
 OBSptrFile(3)='obcs/CCS_kelp_80x100x48_NO2_South',
 OBSptrFile(4)='obcs/CCS_kelp_80x100x48_NH4_South',
 OBSptrFile(5)='obcs/CCS_kelp_80x100x48_PO4_South',
 OBSptrFile(6)='obcs/CCS_kelp_80x100x48_FeT_South',
 OBSptrFile(7)='obcs/CCS_kelp_80x100x48_SiO2_South',
 OBSptrFile(8)='obcs/CCS_kelp_80x100x48_DOC_South',
 OBSptrFile(9)='obcs/CCS_kelp_80x100x48_DON_South',
 OBSptrFile(10)='obcs/CCS_kelp_80x100x48_DOP_South',
 OBSptrFile(11)='obcs/CCS_kelp_80x100x48_DOFe_South',
 OBSptrFile(12)='obcs/CCS_kelp_80x100x48_POC_South',
 OBSptrFile(13)='obcs/CCS_kelp_80x100x48_PON_South',
 OBSptrFile(14)='obcs/CCS_kelp_80x100x48_POP_South',
 OBSptrFile(15)='obcs/CCS_kelp_80x100x48_POFe_South',
 OBSptrFile(16)='obcs/CCS_kelp_80x100x48_POSi_South',
 OBSptrFile(17)='obcs/CCS_kelp_80x100x48_PIC_South',
 OBSptrFile(18)='obcs/CCS_kelp_80x100x48_ALK_South',
 OBSptrFile(19)='obcs/CCS_kelp_80x100x48_O2_South',
 OBSptrFile(20)='obcs/CCS_kelp_80x100x48_c1_South',
 OBSptrFile(21)='obcs/CCS_kelp_80x100x48_c2_South',
 OBSptrFile(22)='obcs/CCS_kelp_80x100x48_c3_South',
 OBSptrFile(23)='obcs/CCS_kelp_80x100x48_c4_South',
 OBSptrFile(24)='obcs/CCS_kelp_80x100x48_c5_South',
 OBSptrFile(25)='obcs/CCS_kelp_80x100x48_c6_South',
 OBSptrFile(26)='obcs/CCS_kelp_80x100x48_c7_South',
 OBSptrFile(27)='obcs/CCS_kelp_80x100x48_Chl1_South',
 OBSptrFile(28)='obcs/CCS_kelp_80x100x48_Chl2_South',
 OBSptrFile(29)='obcs/CCS_kelp_80x100x48_Chl3_South',
 OBSptrFile(30)='obcs/CCS_kelp_80x100x48_Chl4_South',
 OBSptrFile(31)='obcs/CCS_kelp_80x100x48_Chl5_South',
 OBSptrFile(32)='obcs2/CCS_kelp_80x100x48_Bmag_South.bin',
 OBSptrFile(33)='obcs2/CCS_kelp_80x100x48_Cmag_South.bin',
 OBSptrFile(34)='obcs2/CCS_kelp_80x100x48_Qmag_South.bin',
#
 OBWsFile='obcs/CCS_kelp_80x100x48_SALT_West',
 OBWtFile='obcs/CCS_kelp_80x100x48_THETA_West',
 OBWuFile='obcs/CCS_kelp_80x100x48_U_West',
 OBWvFile='obcs/CCS_kelp_80x100x48_V_West',
 OBWptrFile(1)='obcs/CCS_kelp_80x100x48_DIC_West',
 OBWptrFile(2)='obcs/CCS_kelp_80x100x48_NO3_West',
 OBWptrFile(3)='obcs/CCS_kelp_80x100x48_NO2_West',
 OBWptrFile(4)='obcs/CCS_kelp_80x100x48_NH4_West',
 OBWptrFile(5)='obcs/CCS_kelp_80x100x48_PO4_West',
 OBWptrFile(6)='obcs/CCS_kelp_80x100x48_FeT_West',
 OBWptrFile(7)='obcs/CCS_kelp_80x100x48_SiO2_West',
 OBWptrFile(8)='obcs/CCS_kelp_80x100x48_DOC_West',
 OBWptrFile(9)='obcs/CCS_kelp_80x100x48_DON_West',
 OBWptrFile(10)='obcs/CCS_kelp_80x100x48_DOP_West',
 OBWptrFile(11)='obcs/CCS_kelp_80x100x48_DOFe_West',
 OBWptrFile(12)='obcs/CCS_kelp_80x100x48_POC_West',
 OBWptrFile(13)='obcs/CCS_kelp_80x100x48_PON_West',
 OBWptrFile(14)='obcs/CCS_kelp_80x100x48_POP_West',
 OBWptrFile(15)='obcs/CCS_kelp_80x100x48_POFe_West',
 OBWptrFile(16)='obcs/CCS_kelp_80x100x48_POSi_West',
 OBWptrFile(17)='obcs/CCS_kelp_80x100x48_PIC_West',
 OBWptrFile(18)='obcs/CCS_kelp_80x100x48_ALK_West',
 OBWptrFile(19)='obcs/CCS_kelp_80x100x48_O2_West',
 OBWptrFile(20)='obcs/CCS_kelp_80x100x48_c1_West',
 OBWptrFile(21)='obcs/CCS_kelp_80x100x48_c2_West',
 OBWptrFile(22)='obcs/CCS_kelp_80x100x48_c3_West',
 OBWptrFile(23)='obcs/CCS_kelp_80x100x48_c4_West',
 OBWptrFile(24)='obcs/CCS_kelp_80x100x48_c5_West',
 OBWptrFile(25)='obcs/CCS_kelp_80x100x48_c6_West',
 OBWptrFile(26)='obcs/CCS_kelp_80x100x48_c7_West',
 OBWptrFile(27)='obcs/CCS_kelp_80x100x48_Chl1_West',
 OBWptrFile(28)='obcs/CCS_kelp_80x100x48_Chl2_West',
 OBWptrFile(29)='obcs/CCS_kelp_80x100x48_Chl3_West',
 OBWptrFile(30)='obcs/CCS_kelp_80x100x48_Chl4_West',
 OBWptrFile(31)='obcs/CCS_kelp_80x100x48_Chl5_West',
 OBWptrFile(32)='obcs2/CCS_kelp_80x100x48_Bmag_West.bin',
 OBWptrFile(33)='obcs2/CCS_kelp_80x100x48_Cmag_West.bin',
 OBWptrFile(34)='obcs2/CCS_kelp_80x100x48_Qmag_West.bin',
#
 &
# Sponge layer parameters
 &OBCS_PARM05
 &
