# Packages
 &PACKAGES
 useCAL         = .TRUE.,
 useEXF         = .TRUE.,
# useKPP        = .TRUE.,
 useGGL90       = .TRUE.,
 useOBCS	= .TRUE.,
 useDiagnostics = .TRUE.,
 useSEAICE      = .TRUE.,
 /
