 &GCHEM_PARM01
  useDARWIN=.TRUE.,
  nsubtime=1,
 /
