# Packages
 &PACKAGES
 useCAL         = .TRUE.,
 useEXF         = .TRUE.,
 useDiagnostics = .TRUE.,
# useKPP        = .TRUE.,
 useGGL90       = .TRUE.,
 useGCHEM       = .TRUE.,
 useOBCS        = .TRUE.,
 usePTRACERS    = .TRUE.,
 useSALT_PLUME  = .FALSE.,
 useSEAICE      = .TRUE.,
 &
