# ***************
# Open boundaries
# ***************
 &OBCS_PARM01
 OB_Jsouth =   69*1,
 OB_Iwest  =   66*1,
#
 useOBCSprescribe=.TRUE.,
#
 OBSsFile='obcs/GulfGuinea_69x66x50_SALT_South',
 OBStFile='obcs/GulfGuinea_69x66x50_THETA_South',
 OBSuFile='obcs/GulfGuinea_69x66x50_U_South',
 OBSvFile='obcs/GulfGuinea_69x66x50_V_South',
 OBSptrFile(1)='obcs/GulfGuinea_69x66x50_DIC_South',
 OBSptrFile(2)='obcs/GulfGuinea_69x66x50_NO3_South',
 OBSptrFile(3)='obcs/GulfGuinea_69x66x50_NO2_South',
 OBSptrFile(4)='obcs/GulfGuinea_69x66x50_NH4_South',
 OBSptrFile(5)='obcs/GulfGuinea_69x66x50_PO4_South',
 OBSptrFile(6)='obcs/GulfGuinea_69x66x50_FeT_South',
 OBSptrFile(7)='obcs/GulfGuinea_69x66x50_SiO2_South',
 OBSptrFile(8)='obcs/GulfGuinea_69x66x50_DOC_South',
 OBSptrFile(9)='obcs/GulfGuinea_69x66x50_DON_South',
 OBSptrFile(10)='obcs/GulfGuinea_69x66x50_DOP_South',
 OBSptrFile(11)='obcs/GulfGuinea_69x66x50_DOFe_South',
 OBSptrFile(12)='obcs/GulfGuinea_69x66x50_POC_South',
 OBSptrFile(13)='obcs/GulfGuinea_69x66x50_PON_South',
 OBSptrFile(14)='obcs/GulfGuinea_69x66x50_POP_South',
 OBSptrFile(15)='obcs/GulfGuinea_69x66x50_POFe_South',
 OBSptrFile(16)='obcs/GulfGuinea_69x66x50_POSi_South',
 OBSptrFile(17)='obcs/GulfGuinea_69x66x50_PIC_South',
 OBSptrFile(18)='obcs/GulfGuinea_69x66x50_ALK_South',
 OBSptrFile(19)='obcs/GulfGuinea_69x66x50_O2_South',
 OBSptrFile(20)='obcs/GulfGuinea_69x66x50_c1_South',
 OBSptrFile(21)='obcs/GulfGuinea_69x66x50_c2_South',
 OBSptrFile(22)='obcs/GulfGuinea_69x66x50_c3_South',
 OBSptrFile(23)='obcs/GulfGuinea_69x66x50_c4_South',
 OBSptrFile(24)='obcs/GulfGuinea_69x66x50_c5_South',
 OBSptrFile(25)='obcs/GulfGuinea_69x66x50_c6_South',
 OBSptrFile(26)='obcs/GulfGuinea_69x66x50_c7_South',
 OBSptrFile(27)='obcs/GulfGuinea_69x66x50_Chl1_South',
 OBSptrFile(28)='obcs/GulfGuinea_69x66x50_Chl2_South',
 OBSptrFile(29)='obcs/GulfGuinea_69x66x50_Chl3_South',
 OBSptrFile(30)='obcs/GulfGuinea_69x66x50_Chl4_South',
 OBSptrFile(31)='obcs/GulfGuinea_69x66x50_Chl5_South',
#
 OBWsFile='obcs/GulfGuinea_69x66x50_SALT_West',
 OBWtFile='obcs/GulfGuinea_69x66x50_THETA_West',
 OBWuFile='obcs/GulfGuinea_69x66x50_U_West',
 OBWvFile='obcs/GulfGuinea_69x66x50_V_West',
 OBWptrFile(1)='obcs/GulfGuinea_69x66x50_DIC_West',
 OBWptrFile(2)='obcs/GulfGuinea_69x66x50_NO3_West',
 OBWptrFile(3)='obcs/GulfGuinea_69x66x50_NO2_West',
 OBWptrFile(4)='obcs/GulfGuinea_69x66x50_NH4_West',
 OBWptrFile(5)='obcs/GulfGuinea_69x66x50_PO4_West',
 OBWptrFile(6)='obcs/GulfGuinea_69x66x50_FeT_West',
 OBWptrFile(7)='obcs/GulfGuinea_69x66x50_SiO2_West',
 OBWptrFile(8)='obcs/GulfGuinea_69x66x50_DOC_West',
 OBWptrFile(9)='obcs/GulfGuinea_69x66x50_DON_West',
 OBWptrFile(10)='obcs/GulfGuinea_69x66x50_DOP_West',
 OBWptrFile(11)='obcs/GulfGuinea_69x66x50_DOFe_West',
 OBWptrFile(12)='obcs/GulfGuinea_69x66x50_POC_West',
 OBWptrFile(13)='obcs/GulfGuinea_69x66x50_PON_West',
 OBWptrFile(14)='obcs/GulfGuinea_69x66x50_POP_West',
 OBWptrFile(15)='obcs/GulfGuinea_69x66x50_POFe_West',
 OBWptrFile(16)='obcs/GulfGuinea_69x66x50_POSi_West',
 OBWptrFile(17)='obcs/GulfGuinea_69x66x50_PIC_West',
 OBWptrFile(18)='obcs/GulfGuinea_69x66x50_ALK_West',
 OBWptrFile(19)='obcs/GulfGuinea_69x66x50_O2_West',
 OBWptrFile(20)='obcs/GulfGuinea_69x66x50_c1_West',
 OBWptrFile(21)='obcs/GulfGuinea_69x66x50_c2_West',
 OBWptrFile(22)='obcs/GulfGuinea_69x66x50_c3_West',
 OBWptrFile(23)='obcs/GulfGuinea_69x66x50_c4_West',
 OBWptrFile(24)='obcs/GulfGuinea_69x66x50_c5_West',
 OBWptrFile(25)='obcs/GulfGuinea_69x66x50_c6_West',
 OBWptrFile(26)='obcs/GulfGuinea_69x66x50_c7_West',
 OBWptrFile(27)='obcs/GulfGuinea_69x66x50_Chl1_West',
 OBWptrFile(28)='obcs/GulfGuinea_69x66x50_Chl2_West',
 OBWptrFile(29)='obcs/GulfGuinea_69x66x50_Chl3_West',
 OBWptrFile(30)='obcs/GulfGuinea_69x66x50_Chl4_West',
 OBWptrFile(31)='obcs/GulfGuinea_69x66x50_Chl5_West',
#
 &
# Sponge layer parameters
 &OBCS_PARM05
 &
