# Packages
 &PACKAGES
 useEXF   = .TRUE.,
 useCAL   = .TRUE.,
 useGMRedi= .TRUE.,
 useSeaice= .TRUE.,
 useGGL90 = .TRUE.,
 useCTRL  = .TRUE.,
 useSMOOTH= .TRUE.,
 useSALT_PlUME=.TRUE.,
 useDiagnostics=.TRUE.,
 useOBCS  = .TRUE.,
 usePTRACERS   = .TRUE.,
 useGCHEM      = .TRUE.,
 /
