# Packages
 &PACKAGES
 useCAL         = .TRUE.,
 useEXF         = .TRUE.,
 useKPP         = .TRUE.,
 useOBCS	= .TRUE.,
 useDiagnostics = .FALSE.,
 useSEAICE      = .TRUE.,
 /
